powerfulcases/cases/matpower/case6495rte/case6495rte.raw
0, 100, 33, 0, 0, 60  / 28-Jan-2026 21:53:03 - MATPOWER 8.1


     1, 'BUS 1       ',        45, 1,    1,    1, 1, 0.979893048, -10.3768261,    1, 0.888889,    1, 0.888889
     2, 'BUS 2       ',        63, 1,    1,    1, 1,  1.03715026, -10.3554691, 1.06349, 0.936508, 1.06349, 0.936508
     3, 'BUS 3       ',        63, 1,    1,    1, 1,  1.02433173, -12.8534061, 1.07937, 0.952381, 1.07937, 0.952381
     4, 'BUS 4       ',        90, 1,    1,    1, 1,  1.03921351, -24.1153288, 1.08889, 0.933333, 1.08889, 0.933333
     5, 'BUS 5       ',        63, 1,    1,    1, 1,  1.01936346, -52.5501319, 1.06349, 0.952381, 1.06349, 0.952381
     6, 'BUS 6       ',        63, 1,    1,    1, 1,  1.02004802, -21.2483732, 1.07937, 0.920635, 1.07937, 0.920635
     7, 'BUS 7       ',        63, 1,    1,    1, 1,  1.04792706, -23.3284608, 1.07937, 0.920635, 1.07937, 0.920635
     8, 'BUS 8       ',       225, 1,    1,    1, 1,  1.04830196, -17.3700741, 1.08889, 0.888889, 1.08889, 0.888889
     9, 'BUS 9       ',        63, 1,    1,    1, 1,  1.04575179, -17.7128995, 1.06349, 0.936508, 1.06349, 0.936508
    10, 'BUS 10      ',        90, 1,    1,    1, 1,  1.03364016, -22.9721855, 1.07778, 0.922222, 1.07778, 0.922222
    11, 'BUS 11      ',        90, 1,    1,    1, 1,  1.03363994,  -22.972183, 1.07778, 0.922222, 1.07778, 0.922222
    12, 'BUS 12      ',        63, 1,    1,    1, 1,  1.01664069,  1.01323791, 1.07937, 0.952381, 1.07937, 0.952381
    13, 'BUS 13      ',       380, 1,    1,    1, 1,  1.05890193, -3.64645757, 1.10263, 1.05313, 1.10263, 1.05313
    14, 'BUS 14      ',        90, 1,    1,    1, 1,   1.0671468, -31.2262094, 1.07778, 0.977778, 1.07778, 0.977778
    15, 'BUS 15      ',        63, 1,    1,    1, 1,  1.03133856, -23.3422562, 1.07937, 0.920635, 1.07937, 0.920635
    16, 'BUS 16      ',        63, 1,    1,    1, 1,  1.03134679, -29.0313207, 1.07937, 0.920635, 1.07937, 0.920635
    17, 'BUS 17      ',        90, 1,    1,    1, 1,  1.04794596, -31.3481823, 1.06667, 0.977778, 1.06667, 0.977778
    18, 'BUS 18      ',        45, 1,    1,    1, 1, 0.936377787, -5.06544702,    1, 0.888889,    1, 0.888889
    19, 'BUS 19      ',        63, 1,    1,    1, 1,  1.03087171, -20.3196785, 1.06349, 0.936508, 1.06349, 0.936508
    20, 'BUS 20      ',        45, 1,    1,    1, 1, 0.937158468, -5.10023226,    1, 0.888889,    1, 0.888889
    21, 'BUS 21      ',        90, 1,    1,    1, 1,  1.03894873, -19.7127085, 1.06667, 0.977778, 1.06667, 0.977778
    22, 'BUS 22      ',        63, 1,    1,    1, 1,  1.02417072, -13.0166794, 1.07937, 0.952381, 1.07937, 0.952381
    23, 'BUS 23      ',        63, 1,    1,    1, 1,  1.01426878, -10.2175532, 1.06349, 0.936508, 1.06349, 0.936508
    24, 'BUS 24      ',        90, 1,    1,    1, 1,  1.04175688, -22.5362878, 1.11111, 0.955556, 1.11111, 0.955556
    25, 'BUS 25      ',        90, 1,    1,    1, 1,  1.07638926, -18.9285736,  1.1, 0.944444,  1.1, 0.944444
    26, 'BUS 26      ',        90, 1,    1,    1, 1,   1.0352752, -25.1015831, 1.06667, 0.977778, 1.06667, 0.977778
    27, 'BUS 27      ',       225, 1,    1,    1, 1,  1.06660839, -20.5147974, 1.08444, 1.00444, 1.08444, 1.00444
    28, 'BUS 28      ',        63, 1,    1,    1, 1,  1.03351276, -20.2158954, 1.07937, 0.952381, 1.07937, 0.952381
    29, 'BUS 29      ',        63, 1,    1,    1, 1, 0.993975162,  -23.136013, 1.06349, 0.968254, 1.06349, 0.968254
    30, 'BUS 30      ',        90, 1,    1,    1, 1,  1.03314256, -23.1778346, 1.08889, 0.933333, 1.08889, 0.933333
    31, 'BUS 31      ',        63, 1,    1,    1, 1,  1.03625024, -8.99316829, 1.06349, 0.936508, 1.06349, 0.936508
    32, 'BUS 32      ',       150, 1,    1,    1, 1,  1.04470302, -3.80682716, 1.10667,  0.9, 1.10667,  0.9
    33, 'BUS 33      ',       225, 1,    1,    1, 1,  1.05413664, -6.21339632, 1.08889, 0.933333, 1.08889, 0.933333
    34, 'BUS 34      ',       225, 1,    1,    1, 1,  1.04983156, -5.54355372, 1.08889, 0.933333, 1.08889, 0.933333
    35, 'BUS 35      ',       380, 1,    1,    1, 1,  1.07133358, -4.99227828, 1.10526, 1.03947, 1.10526, 1.03947
    36, 'BUS 36      ',       380, 1,    1,    1, 1,  1.07322038, -3.90267037, 1.10526, 1.03947, 1.10526, 1.03947
    37, 'BUS 37      ',        63, 1,    1,    1, 1,  1.01508935, -25.6290612, 1.07937, 0.920635, 1.07937, 0.920635
    38, 'BUS 38      ',        63, 1,    1,    1, 1,  1.03528191, -20.7803563, 1.09524, 0.936508, 1.09524, 0.936508
    39, 'BUS 39      ',        90, 1,    1,    1, 1,   1.0138152, -38.8457623, 1.07778, 0.977778, 1.07778, 0.977778
    40, 'BUS 40      ',        90, 1,    1,    1, 1,  1.05527447, -29.4760069, 1.07778, 0.977778, 1.07778, 0.977778
    41, 'BUS 41      ',       225, 1,    1,    1, 1,  1.07410025, -25.8455379, 1.09152, 1.00444, 1.09152, 1.00444
    42, 'BUS 42      ',        63, 1,    1,    1, 1,  1.12162006,  4.48114191, 1.12834, 0.952381, 1.12834, 0.952381
    43, 'BUS 43      ',        90, 1,    1,    1, 1,  1.04783898, -26.6714372, 1.07778, 0.977778, 1.07778, 0.977778
    44, 'BUS 44      ',        63, 1,    1,    1, 1,  1.02768593, -49.8132016, 1.06349, 0.952381, 1.06349, 0.952381
    45, 'BUS 45      ',        90, 1,    1,    1, 1,  1.02336375, -33.4018313, 1.06667, 0.977778, 1.06667, 0.977778
    46, 'BUS 46      ',        63, 1,    1,    1, 1,  1.03292446, -15.1098515, 1.06349, 0.936508, 1.06349, 0.936508
    47, 'BUS 47      ',        63, 2,    1,    1, 1,       1.027,  -12.083344, 1.06349, 0.936508, 1.06349, 0.936508
    48, 'BUS 48      ',        90, 1,    1,    1, 1,  1.03526823, -23.9652248, 1.07778, 0.922222, 1.07778, 0.922222
    49, 'BUS 49      ',        63, 1,    1,    1, 1,  1.03702466, -15.8386251, 1.06349, 0.936508, 1.06349, 0.936508
    50, 'BUS 50      ',        63, 1,    1,    1, 1,  1.07071557, -13.4433142, 1.07458, 0.936508, 1.07458, 0.936508
    51, 'BUS 51      ',       225, 1,    1,    1, 1,  1.05549555, -8.72688394, 1.08889, 0.933333, 1.08889, 0.933333
    52, 'BUS 52      ',        90, 1,    1,    1, 1,  1.03612192, -34.8372976, 1.06667, 0.977778, 1.06667, 0.977778
    53, 'BUS 53      ',        63, 1,    1,    1, 1,  1.00766185,  -27.119197, 1.04762, 0.952381, 1.04762, 0.952381
    54, 'BUS 54      ',        90, 1,    1,    1, 1,  1.03886174, -17.8087968, 1.06667, 0.977778, 1.06667, 0.977778
    55, 'BUS 55      ',       225, 1,    1,    1, 1,  1.07439337, -28.5325781, 1.08991, 1.00444, 1.08991, 1.00444
    56, 'BUS 56      ',       225, 1,    1,    1, 1,  1.06403386, -24.7163715, 1.08889, 1.00444, 1.08889, 1.00444
    57, 'BUS 57      ',        63, 2,    1,    1, 1,       1.061, -19.0743248, 1.07937, 0.920635, 1.07937, 0.920635
    58, 'BUS 58      ',       225, 1,    1,    1, 1,  1.07422414, -28.5476197, 1.08975, 1.00444, 1.08975, 1.00444
    59, 'BUS 59      ',        63, 1,    1,    1, 1,  1.04830263, -11.1695545, 1.07937, 0.952381, 1.07937, 0.952381
    60, 'BUS 60      ',        63, 1,    1,    1, 1,  1.03839799, -5.55113533, 1.07937, 0.952381, 1.07937, 0.952381
    61, 'BUS 61      ',        63, 1,    1,    1, 1,  1.04122846, -7.53885721, 1.07937, 0.952381, 1.07937, 0.952381
    62, 'BUS 62      ',        63, 1,    1,    1, 1,  1.02509397, -5.66246789, 1.07937, 0.952381, 1.07937, 0.952381
    63, 'BUS 63      ',        63, 1,    1,    1, 1,  1.01103702, 0.0424383585, 1.07937, 0.952381, 1.07937, 0.952381
    64, 'BUS 64      ',       225, 1,    1,    1, 1,  1.06588036, -16.5426802, 1.08889, 0.888889, 1.08889, 0.888889
    65, 'BUS 65      ',        63, 1,    1,    1, 1,  1.05154171, -8.12705692, 1.07937, 0.952381, 1.07937, 0.952381
    66, 'BUS 66      ',        63, 1,    1,    1, 1,   1.0416174, -24.3594319, 1.06349, 0.936508, 1.06349, 0.936508
    67, 'BUS 67      ',        63, 1,    1,    1, 1,  1.04174355, -20.4532918, 1.07937, 0.920635, 1.07937, 0.920635
    68, 'BUS 68      ',        63, 1,    1,    1, 1,  1.02271664, -15.0424467, 1.06349, 0.936508, 1.06349, 0.936508
    69, 'BUS 69      ',        63, 1,    1,    1, 1,   1.0446944, -53.9257484, 1.06349, 0.952381, 1.06349, 0.952381
    70, 'BUS 70      ',        63, 1,    1,    1, 1,   1.0211168,  1.75224351, 1.07937, 0.952381, 1.07937, 0.952381
    71, 'BUS 71      ',        63, 1,    1,    1, 1,  1.02187174, -27.6353903, 1.04762, 0.952381, 1.04762, 0.952381
    72, 'BUS 72      ',       225, 1,    1,    1, 1,  1.07905772, -20.4454849, 1.08892, 1.00444, 1.08892, 1.00444
    73, 'BUS 73      ',       225, 1,    1,    1, 1,  1.07905853, -20.4447201, 1.08892, 1.00444, 1.08892, 1.00444
    74, 'BUS 74      ',       225, 1,    1,    1, 1,  1.06637837, -16.3923304, 1.08889, 0.888889, 1.08889, 0.888889
    75, 'BUS 75      ',        90, 1,    1,    1, 1,  1.04842048, -21.1820269, 1.06667, 0.977778, 1.06667, 0.977778
    76, 'BUS 76      ',       225, 1,    1,    1, 1,  1.07517032,  3.47900906, 1.08889, 0.986667, 1.08889, 0.986667
    77, 'BUS 77      ',        63, 1,    1,    1, 1,  1.02800455, -16.3349876, 1.06349, 0.936508, 1.06349, 0.936508
    78, 'BUS 78      ',        63, 1,    1,    1, 1,  1.03831897, -26.3244184, 1.07937, 0.920635, 1.07937, 0.920635
    79, 'BUS 79      ',        63, 1,    1,    1, 1,  1.01089841,  -26.183276, 1.04762, 0.952381, 1.04762, 0.952381
    80, 'BUS 80      ',       225, 1,    1,    1, 1,  1.04923048,  -25.848135, 1.08889, 1.00444, 1.08889, 1.00444
    81, 'BUS 81      ',       225, 1,    1,    1, 1,  1.04924992, -25.8480644, 1.08889, 1.00444, 1.08889, 1.00444
    82, 'BUS 82      ',        63, 1,    1,    1, 1,   1.0384376, -16.7259604, 1.06349, 0.936508, 1.06349, 0.936508
    83, 'BUS 83      ',       225, 1,    1,    1, 1,  1.05946458, -26.2942368, 1.08889, 1.00444, 1.08889, 1.00444
    84, 'BUS 84      ',        63, 1,    1,    1, 1,  1.02536595, -12.5330646, 1.06349, 0.936508, 1.06349, 0.936508
    85, 'BUS 85      ',        63, 1,    1,    1, 1,  1.04847454, -16.0537832, 1.06568, 0.936508, 1.06568, 0.936508
    86, 'BUS 86      ',        90, 1,    1,    1, 1,  1.03240006, -42.3544522, 1.06667, 0.977778, 1.06667, 0.977778
    87, 'BUS 87      ',        63, 1,    1,    1, 1,  1.02476015, 0.189234452, 1.07937, 0.952381, 1.07937, 0.952381
    88, 'BUS 88      ',        63, 1,    1,    1, 1,  1.03992315, -18.4990468, 1.06349, 0.936508, 1.06349, 0.936508
    89, 'BUS 89      ',        90, 1,    1,    1, 1,  1.04374964, -29.2142493, 1.07778, 0.977778, 1.07778, 0.977778
    90, 'BUS 90      ',        45, 1,    1,    1, 1, 0.941141294, -5.76927592,    1, 0.888889,    1, 0.888889
    91, 'BUS 91      ',        45, 1,    1,    1, 1, 0.936377787, -5.06544702,    1, 0.888889,    1, 0.888889
    92, 'BUS 92      ',        63, 1,    1,    1, 1,  1.01482002, -18.9752952, 1.06349, 0.968254, 1.06349, 0.968254
    93, 'BUS 93      ',        45, 1,    1,    1, 1, 0.953435375, -7.72442804,    1, 0.888889,    1, 0.888889
    94, 'BUS 94      ',        90, 1,    1,    1, 1,  1.04421444, -24.0559689, 1.06667, 0.977778, 1.06667, 0.977778
    95, 'BUS 95      ',        90, 1,    1,    1, 1,  1.03697618,  -34.730461, 1.06667, 0.977778, 1.06667, 0.977778
    96, 'BUS 96      ',        63, 1,    1,    1, 1,  1.05121477, -8.32668915, 1.06349, 0.936508, 1.06349, 0.936508
    97, 'BUS 97      ',        63, 1,    1,    1, 1,  1.03680942, -23.8967173, 1.07937, 0.920635, 1.07937, 0.920635
    98, 'BUS 98      ',        63, 1,    1,    1, 1,  1.03306301,  -19.305384, 1.07937, 0.952381, 1.07937, 0.952381
    99, 'BUS 99      ',        63, 1,    1,    1, 1,  1.04753422, -7.21416459, 1.07937, 0.952381, 1.07937, 0.952381
   100, 'BUS 100     ',        63, 1,    1,    1, 1,  1.02153611, -14.1138264, 1.06349, 0.936508, 1.06349, 0.936508
   101, 'BUS 101     ',        63, 1,    1,    1, 1,  1.01462219, -13.3414563, 1.06349, 0.936508, 1.06349, 0.936508
   102, 'BUS 102     ',        63, 2,    1,    1, 1,        1.03, -14.7394089, 1.07937, 0.952381, 1.07937, 0.952381
   103, 'BUS 103     ',        63, 1,    1,    1, 1,  1.04168196,  -5.9124754, 1.07937, 0.952381, 1.07937, 0.952381
   104, 'BUS 104     ',       225, 1,    1,    1, 1,  1.07376319, -3.24103261, 1.08889, 0.986667, 1.08889, 0.986667
   105, 'BUS 105     ',       225, 1,    1,    1, 1,   1.0476859, -15.0454002, 1.08889, 0.888889, 1.08889, 0.888889
   106, 'BUS 106     ',        90, 1,    1,    1, 1,  1.05807326, -19.8747997,  1.1, 0.944444,  1.1, 0.944444
   107, 'BUS 107     ',       225, 1,    1,    1, 1,  1.04740374, -28.4302924, 1.08444, 1.00889, 1.08444, 1.00889
   108, 'BUS 108     ',        90, 1,    1,    1, 1,  1.05194743, -24.8950195, 1.07778, 0.977778, 1.07778, 0.977778
   109, 'BUS 109     ',        63, 1,    1,    1, 1,  1.04888746, -12.4858197, 1.06837, 0.936508, 1.06837, 0.936508
   110, 'BUS 110     ',       225, 1,    1,    1, 1,  1.03317493, -8.83146225, 1.08889, 0.933333, 1.08889, 0.933333
   111, 'BUS 111     ',        63, 1,    1,    1, 1,  1.00285431, -21.3961828, 1.06349, 0.968254, 1.06349, 0.968254
   112, 'BUS 112     ',        63, 1,    1,    1, 1,  1.02277458, -27.3291888, 1.04762, 0.952381, 1.04762, 0.952381
   113, 'BUS 113     ',       225, 1,    1,    1, 1,  1.05428214, -23.8486593, 1.08889, 1.00444, 1.08889, 1.00444
   114, 'BUS 114     ',        63, 1,    1,    1, 1,  1.04699471, -11.7135619, 1.06349, 0.936508, 1.06349, 0.936508
   115, 'BUS 115     ',       380, 1,    1,    1, 1,  1.05891111, -3.64654095, 1.10526, 1.05263, 1.10526, 1.05263
   116, 'BUS 116     ',       380, 1,    1,    1, 1,  1.05891111, -3.64654095, 1.10526, 1.05263, 1.10526, 1.05263
   117, 'BUS 117     ',        63, 1,    1,    1, 1,  1.02390906, -18.3028877, 1.07937, 0.952381, 1.07937, 0.952381
   118, 'BUS 118     ',        90, 1,    1,    1, 1,   1.0508012, -20.8600636, 1.06667, 0.977778, 1.06667, 0.977778
   119, 'BUS 119     ',        63, 1,    1,    1, 1,  1.01921766, -10.1804408, 1.06349, 0.936508, 1.06349, 0.936508
   120, 'BUS 120     ',        63, 1,    1,    1, 1,  1.01796489, -9.15733727, 1.06349, 0.936508, 1.06349, 0.936508
   121, 'BUS 121     ',        63, 1,    1,    1, 1,  1.02368034, -25.6646161, 1.07937, 0.920635, 1.07937, 0.920635
   122, 'BUS 122     ',        63, 2,    1,    1, 1,       1.038, -6.82675392, 1.07937, 0.952381, 1.07937, 0.952381
   123, 'BUS 123     ',        63, 1,    1,    1, 1,   1.0359314, -6.95350482, 1.07937, 0.952381, 1.07937, 0.952381
   124, 'BUS 124     ',        90, 1,    1,    1, 1,  1.04547533, -27.3968828, 1.06667, 0.977778, 1.06667, 0.977778
   125, 'BUS 125     ',        63, 1,    1,    1, 1,  1.03277618, -13.6066251, 1.07937, 0.952381, 1.07937, 0.952381
   126, 'BUS 126     ',        63, 1,    1,    1, 1,  1.05036369, -16.0236274, 1.06349, 0.936508, 1.06349, 0.936508
   127, 'BUS 127     ',        63, 1,    1,    1, 1,  1.01431466, -30.0051866, 1.04762, 0.952381, 1.04762, 0.952381
   128, 'BUS 128     ',        63, 1,    1,    1, 1,  1.02103073, -11.2979252, 1.06349, 0.968254, 1.06349, 0.968254
   129, 'BUS 129     ',        63, 1,    1,    1, 1,  1.01953551, -9.55719239, 1.06349, 0.968254, 1.06349, 0.968254
   130, 'BUS 130     ',       225, 1,    1,    1, 1,  1.04904375, -8.72555958, 1.08444, 1.00889, 1.08444, 1.00889
   131, 'BUS 131     ',       225, 1,    1,    1, 1,  1.04723325, -16.2594936, 1.08444, 1.00889, 1.08444, 1.00889
   132, 'BUS 132     ',        90, 2,    1,    1, 1,       1.068, -17.1797687, 1.07778, 0.922222, 1.07778, 0.922222
   133, 'BUS 133     ',        63, 1,    1,    1, 1, 0.985771946, -29.7504791, 1.04762, 0.952381, 1.04762, 0.952381
   134, 'BUS 134     ',       225, 1,    1,    1, 1,  1.03201673, -26.5791626, 1.08889, 1.00444, 1.08889, 1.00444
   135, 'BUS 135     ',       225, 1,    1,    1, 1,  1.07521745, -28.3621828, 1.09072, 1.00444, 1.09072, 1.00444
   136, 'BUS 136     ',        90, 1,    1,    1, 1,  1.04368464, -37.7238495, 1.07778, 0.977778, 1.07778, 0.977778
   137, 'BUS 137     ',        63, 2,    1,    1, 1,       1.032, -12.8887764, 1.06349, 0.968254, 1.06349, 0.968254
   138, 'BUS 138     ',       150, 1,    1,    1, 1,  1.05024707, -11.0755553, 1.08, 0.966667, 1.08, 0.966667
   139, 'BUS 139     ',        63, 1,    1,    1, 1,  1.03445563, -16.9390403, 1.07937, 0.920635, 1.07937, 0.920635
   140, 'BUS 140     ',       225, 1,    1,    1, 1,  1.05987232, -13.2255136, 1.08889,    1, 1.08889,    1
   141, 'BUS 141     ',       380, 1,    1,    1, 1,  1.06803927, -9.79432415, 1.10526, 1.05263, 1.10526, 1.05263
   142, 'BUS 142     ',        63, 1,    1,    1, 1,  1.05173173, -10.7314443, 1.07937, 0.952381, 1.07937, 0.952381
   143, 'BUS 143     ',       225, 1,    1,    1, 1,    1.069667, -6.32556381, 1.08889, 0.986667, 1.08889, 0.986667
   144, 'BUS 144     ',        90, 1,    1,    1, 1,  1.04615994, -20.7164905, 1.11111, 0.955556, 1.11111, 0.955556
   145, 'BUS 145     ',       225, 1,    1,    1, 1,  1.06730872, -16.2828642, 1.08889, 0.968889, 1.08889, 0.968889
   146, 'BUS 146     ',       380, 1,    1,    1, 1,  1.07893565, -13.2565255, 1.10526,    1, 1.10526,    1
   147, 'BUS 147     ',        63, 1,    1,    1, 1,   1.0460682, -14.7875757, 1.06349, 0.936508, 1.06349, 0.936508
   148, 'BUS 148     ',        63, 1,    1,    1, 1,  1.04459985, -12.1022181, 1.06349, 0.936508, 1.06349, 0.936508
   149, 'BUS 149     ',        90, 1,    1,    1, 1,  1.04278468, -33.9950246, 1.06667, 0.977778, 1.06667, 0.977778
   150, 'BUS 150     ',        63, 1,    1,    1, 1,   1.0345059, -9.49190197, 1.06349, 0.936508, 1.06349, 0.936508
   151, 'BUS 151     ',        63, 1,    1,    1, 1, 0.984485029, -24.2430812, 1.06349, 0.968254, 1.06349, 0.968254
   152, 'BUS 152     ',        63, 1,    1,    1, 1, 0.984373819,  -22.988736, 1.06349, 0.968254, 1.06349, 0.968254
   153, 'BUS 153     ',        63, 1,    1,    1, 1,  1.04181198, -10.7366802, 1.06349, 0.936508, 1.06349, 0.936508
   154, 'BUS 154     ',       225, 1,    1,    1, 1,  1.06419161,  -7.4594666, 1.08889, 0.933333, 1.08889, 0.933333
   155, 'BUS 155     ',        63, 2,    1,    1, 1,  1.04606359,  -21.140902, 1.07937, 0.920635, 1.07937, 0.920635
   156, 'BUS 156     ',        63, 1,    1,    1, 1, 0.984438426, -24.2481413, 1.06349, 0.968254, 1.06349, 0.968254
   157, 'BUS 157     ',        45, 1,    1,    1, 1,  0.93033985, -9.08222663,    1, 0.888889,    1, 0.888889
   158, 'BUS 158     ',        45, 2,    1,    1, 1,       0.963, -8.51156895,    1, 0.888889,    1, 0.888889
   159, 'BUS 159     ',        63, 1,    1,    1, 1,  1.03333219, -11.9335484, 1.06349, 0.936508, 1.06349, 0.936508
   160, 'BUS 160     ',       225, 1,    1,    1, 1,  1.05587049, -13.5394301, 1.08889, 0.888889, 1.08889, 0.888889
   161, 'BUS 161     ',       225, 1,    1,    1, 1,  1.05565475, -13.5407201, 1.08889, 0.888889, 1.08889, 0.888889
   162, 'BUS 162     ',        90, 1,    1,    1, 1,  1.02219857, -24.9428349, 1.06667, 0.977778, 1.06667, 0.977778
   163, 'BUS 163     ',        63, 1,    1,    1, 1,  1.02286077, -6.44251223, 1.07937, 0.952381, 1.07937, 0.952381
   164, 'BUS 164     ',        63, 1,    1,    1, 1,  1.02286077, -6.44251223, 1.07937, 0.952381, 1.07937, 0.952381
   165, 'BUS 165     ',        20, 1,    1,    1, 1,  1.07403518, -29.5511273, 1.15,  0.8, 1.15,  0.8
   166, 'BUS 166     ',        90, 1,    1,    1, 1,  1.04275466, -33.6436872, 1.06667, 0.977778, 1.06667, 0.977778
   167, 'BUS 167     ',        90, 1,    1,    1, 1,  1.04027647, -34.1112677, 1.06667, 0.977778, 1.06667, 0.977778
   168, 'BUS 168     ',       225, 1,    1,    1, 1,  1.07409653, -29.5462001, 1.08444, 1.00444, 1.08444, 1.00444
   169, 'BUS 169     ',        90, 1,    1,    1, 1,  1.03640065, -29.6709628, 1.06667, 0.977778, 1.06667, 0.977778
   170, 'BUS 170     ',        90, 1,    1,    1, 1,  1.04459062, -29.4504458, 1.07778, 0.977778, 1.07778, 0.977778
   171, 'BUS 171     ',        90, 1,    1,    1, 1,  1.05951006, -32.3605127, 1.07921, 0.977778, 1.07921, 0.977778
   172, 'BUS 172     ',       225, 1,    1,    1, 1,  1.06881147, -28.1963472, 1.08889, 1.00444, 1.08889, 1.00444
   173, 'BUS 173     ',        90, 1,    1,    1, 1,  1.07000053, -17.9396571, 1.08889, 0.933333, 1.08889, 0.933333
   174, 'BUS 174     ',        90, 1,    1,    1, 1,  1.07058638, -20.6359947, 1.11111, 0.955556, 1.11111, 0.955556
   175, 'BUS 175     ',        63, 1,    1,    1, 1,  1.02623844, -20.4004716, 1.07937, 0.920635, 1.07937, 0.920635
   176, 'BUS 176     ',       150, 2,    1,    1, 1,  1.09807384,  -18.170938,  1.1,  0.9,  1.1,  0.9
   177, 'BUS 177     ',       225, 1,    1,    1, 1,  1.06740858, -26.5950591, 1.08889, 1.00444, 1.08889, 1.00444
   178, 'BUS 178     ',       225, 1,    1,    1, 1,   1.0674088, -26.5950603, 1.08889, 1.00444, 1.08889, 1.00444
   179, 'BUS 179     ',        63, 1,    1,    1, 1,  1.01447721, -29.9954878, 1.04762, 0.952381, 1.04762, 0.952381
   180, 'BUS 180     ',       225, 1,    1,    1, 1,   1.0674073, -26.5950521, 1.08889, 1.00444, 1.08889, 1.00444
   181, 'BUS 181     ',        63, 1,    1,    1, 1,  1.04276469, -25.7016665, 1.07937, 0.920635, 1.07937, 0.920635
   182, 'BUS 182     ',        63, 1,    1,    1, 1,  1.04407781, -9.36641029, 1.06349, 0.936508, 1.06349, 0.936508
   183, 'BUS 183     ',        63, 1,    1,    1, 1,  1.03668717, -19.3274022, 1.07937, 0.952381, 1.07937, 0.952381
   184, 'BUS 184     ',        90, 1,    1,    1, 1,  1.06425697, -26.0579053, 1.07778, 0.977778, 1.07778, 0.977778
   185, 'BUS 185     ',        63, 1,    1,    1, 1,  1.04327826, -11.5442269, 1.07937, 0.952381, 1.07937, 0.952381
   186, 'BUS 186     ',        90, 1,    1,    1, 1,   1.0290045,  -23.510342, 1.06667, 0.977778, 1.06667, 0.977778
   187, 'BUS 187     ',        63, 2,    1,    1, 1,  1.05051182, -20.9900302, 1.07937, 0.920635, 1.07937, 0.920635
   188, 'BUS 188     ',        63, 1,    1,    1, 1,  1.09615659, -19.2244145, 1.10211, 0.920635, 1.10211, 0.920635
   189, 'BUS 189     ',        63, 1,    1,    1, 1,  1.03429537, -24.0858699, 1.07937, 0.920635, 1.07937, 0.920635
   190, 'BUS 190     ',        45, 2,    1,    1, 1, 0.949967688, -6.96346435,    1, 0.888889,    1, 0.888889
   191, 'BUS 191     ',        90, 1,    1,    1, 1,  1.03808607,  -29.727828, 1.06667, 0.977778, 1.06667, 0.977778
   192, 'BUS 192     ',        63, 1,    1,    1, 1,  1.06203927, -19.6835663, 1.07937, 0.920635, 1.07937, 0.920635
   193, 'BUS 193     ',       225, 1,    1,    1, 1,  1.05393537, -24.3564537, 1.08889, 1.00444, 1.08889, 1.00444
   194, 'BUS 194     ',        63, 2,    1,    1, 1,       1.059, -24.4585786, 1.07937, 0.920635, 1.07937, 0.920635
   195, 'BUS 195     ',        63, 1,    1,    1, 1,  1.05832148, -26.6696164, 1.07545, 0.952381, 1.07545, 0.952381
   196, 'BUS 196     ',        63, 1,    1,    1, 1,  1.05832293,  -26.669659, 1.07546, 0.952381, 1.07546, 0.952381
   197, 'BUS 197     ',        63, 1,    1,    1, 1,  1.02026619, -31.8670207, 1.07937, 0.920635, 1.07937, 0.920635
   198, 'BUS 198     ',        63, 1,    1,    1, 1,  1.03635018, -21.1800518, 1.07937, 0.920635, 1.07937, 0.920635
   199, 'BUS 199     ',        90, 1,    1,    1, 1,  1.02199189, -40.0182133, 1.06667, 0.977778, 1.06667, 0.977778
   200, 'BUS 200     ',       225, 1,    1,    1, 1,  1.08301901, -22.2931995, 1.08889,    1, 1.08889,    1
...
0 / END OF BUS DATA, BEGIN LOAD DATA
     3,  1, 1,    1,    1,      13.1,       2.6, 0, 0, 0, 0, 1, 1, 0
     4,  1, 1,    1,    1,      49.2,       3.4, 0, 0, 0, 0, 1, 1, 0
     5,  1, 1,    1,    1,        11,         0, 0, 0, 0, 0, 1, 1, 0
     6,  1, 1,    1,    1,        13,       4.3, 0, 0, 0, 0, 1, 1, 0
     7,  1, 1,    1,    1,       1.2,       0.7, 0, 0, 0, 0, 1, 1, 0
     8,  1, 1,    1,    1,      24.6,      13.1, 0, 0, 0, 0, 1, 1, 0
     9,  1, 1,    1,    1,      14.9,         0, 0, 0, 0, 0, 1, 1, 0
    11,  1, 1,    1,    1,      30.7,        -2, 0, 0, 0, 0, 1, 1, 0
    14,  1, 1,    1,    1,      52.7,      13.4, 0, 0, 0, 0, 1, 1, 0
    16,  1, 1,    1,    1,      12.5,      -0.6, 0, 0, 0, 0, 1, 1, 0
    17,  1, 1,    1,    1,      10.9,       0.2, 0, 0, 0, 0, 1, 1, 0
    20,  1, 1,    1,    1,       3.9,     -18.2, 0, 0, 0, 0, 1, 1, 0
    21,  1, 1,    1,    1,       6.3,      -2.5, 0, 0, 0, 0, 1, 1, 0
    22,  1, 1,    1,    1,      17.3,       0.8, 0, 0, 0, 0, 1, 1, 0
    23,  1, 1,    1,    1,      24.4,       1.4, 0, 0, 0, 0, 1, 1, 0
    24,  1, 1,    1,    1,      16.7,      -1.3, 0, 0, 0, 0, 1, 1, 0
    25,  1, 1,    1,    1,      51.1,        -4, 0, 0, 0, 0, 1, 1, 0
    26,  1, 1,    1,    1,      32.4,         5, 0, 0, 0, 0, 1, 1, 0
    29,  1, 1,    1,    1,        75,       9.3, 0, 0, 0, 0, 1, 1, 0
    30,  1, 1,    1,    1,      37.6,       3.3, 0, 0, 0, 0, 1, 1, 0
    37,  1, 1,    1,    1,       2.4,       4.7, 0, 0, 0, 0, 1, 1, 0
    38,  1, 1,    1,    1,         8,         3, 0, 0, 0, 0, 1, 1, 0
    39,  1, 1,    1,    1,      40.6,      -4.9, 0, 0, 0, 0, 1, 1, 0
    40,  1, 1,    1,    1,      34.7,       5.1, 0, 0, 0, 0, 1, 1, 0
    43,  1, 1,    1,    1,       3.3,       2.7, 0, 0, 0, 0, 1, 1, 0
    44,  1, 1,    1,    1,      15.2,       1.6, 0, 0, 0, 0, 1, 1, 0
    45,  1, 1,    1,    1,       3.8,       0.8, 0, 0, 0, 0, 1, 1, 0
    48,  1, 1,    1,    1,      38.6,       3.9, 0, 0, 0, 0, 1, 1, 0
    49,  1, 1,    1,    1,       9.9,      -2.6, 0, 0, 0, 0, 1, 1, 0
    52,  1, 1,    1,    1,         8,       3.5, 0, 0, 0, 0, 1, 1, 0
    53,  1, 1,    1,    1,       0.1,      -1.2, 0, 0, 0, 0, 1, 1, 0
    54,  1, 1,    1,    1,      -0.6,       1.2, 0, 0, 0, 0, 1, 1, 0
    55,  1, 1,    1,    1,        49,      11.3, 0, 0, 0, 0, 1, 1, 0
    56,  1, 1,    1,    1,      78.6,      22.5, 0, 0, 0, 0, 1, 1, 0
    58,  1, 1,    1,    1,     146.7,      32.5, 0, 0, 0, 0, 1, 1, 0
    59,  1, 1,    1,    1,       5.1,       0.4, 0, 0, 0, 0, 1, 1, 0
    61,  1, 1,    1,    1,      41.4,      11.6, 0, 0, 0, 0, 1, 1, 0
    63,  1, 1,    1,    1,      15.8,         2, 0, 0, 0, 0, 1, 1, 0
    64,  1, 1,    1,    1,      64.3,       5.4, 0, 0, 0, 0, 1, 1, 0
    65,  1, 1,    1,    1,        12,       2.9, 0, 0, 0, 0, 1, 1, 0
    66,  1, 1,    1,    1,      14.4,      -6.8, 0, 0, 0, 0, 1, 1, 0
    67,  1, 1,    1,    1,         1,         0, 0, 0, 0, 0, 1, 1, 0
    68,  1, 1,    1,    1,      48.7,       3.8, 0, 0, 0, 0, 1, 1, 0
    69,  1, 1,    1,    1,      17.3,      -1.6, 0, 0, 0, 0, 1, 1, 0
    70,  1, 1,    1,    1,      11.7,       3.5, 0, 0, 0, 0, 1, 1, 0
    71,  1, 1,    1,    1,      68.8,      17.2, 0, 0, 0, 0, 1, 1, 0
    74,  1, 1,    1,    1,      53.3,      -8.7, 0, 0, 0, 0, 1, 1, 0
    75,  1, 1,    1,    1,        25,       1.6, 0, 0, 0, 0, 1, 1, 0
    76,  1, 1,    1,    1,         9,       0.7, 0, 0, 0, 0, 1, 1, 0
    77,  1, 1,    1,    1,      40.8,      -1.5, 0, 0, 0, 0, 1, 1, 0
    80,  1, 1,    1,    1,      34.6,      10.4, 0, 0, 0, 0, 1, 1, 0
    81,  1, 1,    1,    1,      34.6,         9, 0, 0, 0, 0, 1, 1, 0
    82,  1, 1,    1,    1,      11.6,      -0.2, 0, 0, 0, 0, 1, 1, 0
    83,  1, 1,    1,    1,      92.4,      64.5, 0, 0, 0, 0, 1, 1, 0
    84,  1, 1,    1,    1,       1.4,      -0.2, 0, 0, 0, 0, 1, 1, 0
    85,  1, 1,    1,    1,       1.8,        -2, 0, 0, 0, 0, 1, 1, 0
    86,  1, 1,    1,    1,      44.9,       3.7, 0, 0, 0, 0, 1, 1, 0
    88,  1, 1,    1,    1,      15.9,         2, 0, 0, 0, 0, 1, 1, 0
    89,  1, 1,    1,    1,      25.7,       0.4, 0, 0, 0, 0, 1, 1, 0
    90,  1, 1,    1,    1,       0.4,      -2.3, 0, 0, 0, 0, 1, 1, 0
    92,  1, 1,    1,    1,      31.6,       3.2, 0, 0, 0, 0, 1, 1, 0
    93,  1, 1,    1,    1,       2.2,      -2.2, 0, 0, 0, 0, 1, 1, 0
    94,  1, 1,    1,    1,      16.9,      -4.6, 0, 0, 0, 0, 1, 1, 0
    95,  1, 1,    1,    1,      53.2,       9.3, 0, 0, 0, 0, 1, 1, 0
    96,  1, 1,    1,    1,       1.2,       0.1, 0, 0, 0, 0, 1, 1, 0
    97,  1, 1,    1,    1,        55,       1.6, 0, 0, 0, 0, 1, 1, 0
    98,  1, 1,    1,    1,       7.7,      -2.1, 0, 0, 0, 0, 1, 1, 0
    99,  1, 1,    1,    1,      31.9,         5, 0, 0, 0, 0, 1, 1, 0
   100,  1, 1,    1,    1,      59.9,       8.9, 0, 0, 0, 0, 1, 1, 0
   101,  1, 1,    1,    1,      17.1,       0.1, 0, 0, 0, 0, 1, 1, 0
   103,  1, 1,    1,    1,        13,      -1.4, 0, 0, 0, 0, 1, 1, 0
   105,  1, 1,    1,    1,      37.7,       0.8, 0, 0, 0, 0, 1, 1, 0
   106,  1, 1,    1,    1,      56.3,       8.2, 0, 0, 0, 0, 1, 1, 0
   107,  1, 1,    1,    1,     107.4,      13.9, 0, 0, 0, 0, 1, 1, 0
   108,  1, 1,    1,    1,      12.7,      -3.9, 0, 0, 0, 0, 1, 1, 0
   109,  1, 1,    1,    1,      60.8,       4.1, 0, 0, 0, 0, 1, 1, 0
   111,  1, 1,    1,    1,      37.3,      -7.4, 0, 0, 0, 0, 1, 1, 0
   114,  1, 1,    1,    1,      12.9,       0.7, 0, 0, 0, 0, 1, 1, 0
   117,  1, 1,    1,    1,      12.8,      -2.1, 0, 0, 0, 0, 1, 1, 0
   118,  1, 1,    1,    1,         2,       0.8, 0, 0, 0, 0, 1, 1, 0
   119,  1, 1,    1,    1,      40.3,       3.7, 0, 0, 0, 0, 1, 1, 0
   120,  1, 1,    1,    1,        22,      -2.3, 0, 0, 0, 0, 1, 1, 0
   121,  1, 1,    1,    1,      22.1,       6.8, 0, 0, 0, 0, 1, 1, 0
   123,  1, 1,    1,    1,        11,       3.7, 0, 0, 0, 0, 1, 1, 0
   124,  1, 1,    1,    1,       8.9,      -2.2, 0, 0, 0, 0, 1, 1, 0
   125,  1, 1,    1,    1,      11.6,      -1.2, 0, 0, 0, 0, 1, 1, 0
   126,  1, 1,    1,    1,       0.4,       0.3, 0, 0, 0, 0, 1, 1, 0
   127,  1, 1,    1,    1,      10.7,       2.9, 0, 0, 0, 0, 1, 1, 0
   128,  1, 1,    1,    1,      13.4,         5, 0, 0, 0, 0, 1, 1, 0
   129,  1, 1,    1,    1,        17,      12.8, 0, 0, 0, 0, 1, 1, 0
   131,  1, 1,    1,    1,     110.7,       4.4, 0, 0, 0, 0, 1, 1, 0
   132,  1, 1,    1,    1,       9.4,         0, 0, 0, 0, 0, 1, 1, 0
   133,  1, 1,    1,    1,       2.5,      -0.1, 0, 0, 0, 0, 1, 1, 0
   134,  1, 1,    1,    1,     101.1,      28.6, 0, 0, 0, 0, 1, 1, 0
   136,  1, 1,    1,    1,      23.7,       0.6, 0, 0, 0, 0, 1, 1, 0
   137,  1, 1,    1,    1,       8.1,      -3.8, 0, 0, 0, 0, 1, 1, 0
   139,  1, 1,    1,    1,      15.7,       4.1, 0, 0, 0, 0, 1, 1, 0
   142,  1, 1,    1,    1,      12.5,       1.1, 0, 0, 0, 0, 1, 1, 0
   144,  1, 1,    1,    1,       8.9,       2.5, 0, 0, 0, 0, 1, 1, 0
   145,  1, 1,    1,    1,        24,       7.7, 0, 0, 0, 0, 1, 1, 0
   147,  1, 1,    1,    1,        28,       4.6, 0, 0, 0, 0, 1, 1, 0
   148,  1, 1,    1,    1,       6.6,       1.5, 0, 0, 0, 0, 1, 1, 0
   149,  1, 1,    1,    1,      15.9,       4.2, 0, 0, 0, 0, 1, 1, 0
   150,  1, 1,    1,    1,      48.4,         1, 0, 0, 0, 0, 1, 1, 0
   152,  1, 1,    1,    1,      42.6,       9.4, 0, 0, 0, 0, 1, 1, 0
   153,  1, 1,    1,    1,      26.9,      -4.9, 0, 0, 0, 0, 1, 1, 0
   157,  1, 1,    1,    1,      -1.4,      -2.3, 0, 0, 0, 0, 1, 1, 0
   160,  1, 1,    1,    1,      39.6,       5.7, 0, 0, 0, 0, 1, 1, 0
   161,  1, 1,    1,    1,      40.6,      10.8, 0, 0, 0, 0, 1, 1, 0
   162,  1, 1,    1,    1,      -0.1,      -1.2, 0, 0, 0, 0, 1, 1, 0
   165,  1, 1,    1,    1,      12.5,       6.7, 0, 0, 0, 0, 1, 1, 0
   166,  1, 1,    1,    1,       8.1,      -0.3, 0, 0, 0, 0, 1, 1, 0
   167,  1, 1,    1,    1,       8.3,        -2, 0, 0, 0, 0, 1, 1, 0
   169,  1, 1,    1,    1,       9.1,      -0.5, 0, 0, 0, 0, 1, 1, 0
   170,  1, 1,    1,    1,      78.8,      13.1, 0, 0, 0, 0, 1, 1, 0
   171,  1, 1,    1,    1,      26.3,      -0.9, 0, 0, 0, 0, 1, 1, 0
   173,  1, 1,    1,    1,      28.9,       8.2, 0, 0, 0, 0, 1, 1, 0
   174,  1, 1,    1,    1,      54.8,       9.7, 0, 0, 0, 0, 1, 1, 0
   181,  1, 1,    1,    1,      14.2,        -5, 0, 0, 0, 0, 1, 1, 0
   182,  1, 1,    1,    1,        15,       4.1, 0, 0, 0, 0, 1, 1, 0
   183,  1, 1,    1,    1,       6.2,      -0.7, 0, 0, 0, 0, 1, 1, 0
   184,  1, 1,    1,    1,         4,       1.4, 0, 0, 0, 0, 1, 1, 0
   185,  1, 1,    1,    1,      28.1,       2.7, 0, 0, 0, 0, 1, 1, 0
   186,  1, 1,    1,    1,       0.4,       1.3, 0, 0, 0, 0, 1, 1, 0
   189,  1, 1,    1,    1,      16.4,       2.1, 0, 0, 0, 0, 1, 1, 0
   191,  1, 1,    1,    1,      14.3,      -1.2, 0, 0, 0, 0, 1, 1, 0
   192,  1, 1,    1,    1,       7.2,        -2, 0, 0, 0, 0, 1, 1, 0
   193,  1, 1,    1,    1,      -0.3,       0.8, 0, 0, 0, 0, 1, 1, 0
   194,  1, 1,    1,    1,       0.7,      -2.2, 0, 0, 0, 0, 1, 1, 0
   197,  1, 1,    1,    1,      27.3,       0.8, 0, 0, 0, 0, 1, 1, 0
   198,  1, 1,    1,    1,        10,      -0.7, 0, 0, 0, 0, 1, 1, 0
   199,  1, 1,    1,    1,      11.4,       1.5, 0, 0, 0, 0, 1, 1, 0
   201,  1, 1,    1,    1,      62.6,      22.9, 0, 0, 0, 0, 1, 1, 0
   202,  1, 1,    1,    1,      48.1,       0.6, 0, 0, 0, 0, 1, 1, 0
   203,  1, 1,    1,    1,      23.4,       3.7, 0, 0, 0, 0, 1, 1, 0
   206,  1, 1,    1,    1,      50.6,       6.4, 0, 0, 0, 0, 1, 1, 0
   207,  1, 1,    1,    1,      32.8,         5, 0, 0, 0, 0, 1, 1, 0
   208,  1, 1,    1,    1,        18,      -0.4, 0, 0, 0, 0, 1, 1, 0
   209,  1, 1,    1,    1,       0.6,       1.4, 0, 0, 0, 0, 1, 1, 0
   210,  1, 1,    1,    1,      41.1,       6.8, 0, 0, 0, 0, 1, 1, 0
   211,  1, 1,    1,    1,      28.1,      13.4, 0, 0, 0, 0, 1, 1, 0
   214,  1, 1,    1,    1,      40.9,       3.5, 0, 0, 0, 0, 1, 1, 0
   216,  1, 1,    1,    1,      20.6,        -4, 0, 0, 0, 0, 1, 1, 0
   217,  1, 1,    1,    1,      26.6,       2.7, 0, 0, 0, 0, 1, 1, 0
   218,  1, 1,    1,    1,      -0.6,       1.1, 0, 0, 0, 0, 1, 1, 0
   219,  1, 1,    1,    1,        12,      -3.2, 0, 0, 0, 0, 1, 1, 0
   220,  1, 1,    1,    1,      12.7,       1.4, 0, 0, 0, 0, 1, 1, 0
   221,  1, 1,    1,    1,       8.6,      -3.8, 0, 0, 0, 0, 1, 1, 0
   223,  1, 1,    1,    1,      41.4,      -0.1, 0, 0, 0, 0, 1, 1, 0
   225,  1, 1,    1,    1,      66.8,       4.8, 0, 0, 0, 0, 1, 1, 0
   226,  1, 1,    1,    1,      66.8,      43.8, 0, 0, 0, 0, 1, 1, 0
   227,  1, 1,    1,    1,         5,      -1.8, 0, 0, 0, 0, 1, 1, 0
   228,  1, 1,    1,    1,      10.9,        -2, 0, 0, 0, 0, 1, 1, 0
   229,  1, 1,    1,    1,      10.5,      -3.1, 0, 0, 0, 0, 1, 1, 0
   231,  1, 1,    1,    1,         7,      -1.4, 0, 0, 0, 0, 1, 1, 0
   232,  1, 1,    1,    1,       5.1,       0.9, 0, 0, 0, 0, 1, 1, 0
   234,  1, 1,    1,    1,        23,       7.1, 0, 0, 0, 0, 1, 1, 0
   235,  1, 1,    1,    1,      14.9,       2.2, 0, 0, 0, 0, 1, 1, 0
   236,  1, 1,    1,    1,      23.8,       1.3, 0, 0, 0, 0, 1, 1, 0
   237,  1, 1,    1,    1,      40.5,       3.2, 0, 0, 0, 0, 1, 1, 0
   238,  1, 1,    1,    1,        25,      -2.5, 0, 0, 0, 0, 1, 1, 0
   239,  1, 1,    1,    1,      52.1,         2, 0, 0, 0, 0, 1, 1, 0
   240,  1, 1,    1,    1,      46.6,       6.6, 0, 0, 0, 0, 1, 1, 0
   241,  1, 1,    1,    1,      52.9,       7.4, 0, 0, 0, 0, 1, 1, 0
   242,  1, 1,    1,    1,      56.3,       9.3, 0, 0, 0, 0, 1, 1, 0
   243,  1, 1,    1,    1,      27.7,      -3.4, 0, 0, 0, 0, 1, 1, 0
   244,  1, 1,    1,    1,      52.3,       2.2, 0, 0, 0, 0, 1, 1, 0
   245,  1, 1,    1,    1,      13.7,      -2.2, 0, 0, 0, 0, 1, 1, 0
   246,  1, 1,    1,    1,      10.5,       3.9, 0, 0, 0, 0, 1, 1, 0
   248,  1, 1,    1,    1,      32.4,      13.6, 0, 0, 0, 0, 1, 1, 0
   249,  1, 1,    1,    1,      22.8,      -2.7, 0, 0, 0, 0, 1, 1, 0
   250,  1, 1,    1,    1,      26.2,      -8.1, 0, 0, 0, 0, 1, 1, 0
   251,  1, 1,    1,    1,      11.3,       1.7, 0, 0, 0, 0, 1, 1, 0
   252,  1, 1,    1,    1,      10.1,      -2.2, 0, 0, 0, 0, 1, 1, 0
   253,  1, 1,    1,    1,      50.7,       3.9, 0, 0, 0, 0, 1, 1, 0
   254,  1, 1,    1,    1,      17.8,       3.6, 0, 0, 0, 0, 1, 1, 0
   255,  1, 1,    1,    1,      10.5,       2.1, 0, 0, 0, 0, 1, 1, 0
   256,  1, 1,    1,    1,       2.8,         0, 0, 0, 0, 0, 1, 1, 0
   259,  1, 1,    1,    1,      32.3,       3.1, 0, 0, 0, 0, 1, 1, 0
   266,  1, 1,    1,    1,      29.7,       8.4, 0, 0, 0, 0, 1, 1, 0
   267,  1, 1,    1,    1,      65.5,       9.9, 0, 0, 0, 0, 1, 1, 0
   268,  1, 1,    1,    1,      13.2,      13.1, 0, 0, 0, 0, 1, 1, 0
   269,  1, 1,    1,    1,      24.5,       1.6, 0, 0, 0, 0, 1, 1, 0
   272,  1, 1,    1,    1,      44.2,       6.9, 0, 0, 0, 0, 1, 1, 0
   273,  1, 1,    1,    1,      29.5,         5, 0, 0, 0, 0, 1, 1, 0
   274,  1, 1,    1,    1,      53.3,       7.5, 0, 0, 0, 0, 1, 1, 0
   277,  1, 1,    1,    1,       1.8,         3, 0, 0, 0, 0, 1, 1, 0
   278,  1, 1,    1,    1,      -1.7,       4.6, 0, 0, 0, 0, 1, 1, 0
   279,  1, 1,    1,    1,        12,      -1.1, 0, 0, 0, 0, 1, 1, 0
   280,  1, 1,    1,    1,      48.8,       7.7, 0, 0, 0, 0, 1, 1, 0
   281,  1, 1,    1,    1,      11.8,        -0, 0, 0, 0, 0, 1, 1, 0
   283,  1, 1,    1,    1,      10.8,        -1, 0, 0, 0, 0, 1, 1, 0
   284,  1, 1,    1,    1,      16.1,       3.1, 0, 0, 0, 0, 1, 1, 0
   285,  1, 1,    1,    1,       0.3,       5.7, 0, 0, 0, 0, 1, 1, 0
   286,  1, 1,    1,    1,      31.3,      25.5, 0, 0, 0, 0, 1, 1, 0
   287,  1, 1,    1,    1,      27.8,        -2, 0, 0, 0, 0, 1, 1, 0
   288,  1, 1,    1,    1,      34.7,      -1.1, 0, 0, 0, 0, 1, 1, 0
   289,  1, 1,    1,    1,      27.3,      -6.6, 0, 0, 0, 0, 1, 1, 0
   290,  1, 1,    1,    1,       3.4,       3.9, 0, 0, 0, 0, 1, 1, 0
   291,  1, 1,    1,    1,      14.3,      -1.9, 0, 0, 0, 0, 1, 1, 0
...
0 / END OF LOAD DATA, BEGIN FIXED SHUNT DATA
    14, 1, 1,       0,    30.4
   140, 1, 1,       0,      80
   152, 1, 1,       0,     7.7
   171, 1, 1,       0,      30
   197, 1, 1,       0,      15
   214, 1, 1,       0,    30.4
   262, 1, 1,       0,      80
   360, 1, 1,       0,      19
   452, 1, 1,       0,      30
   653, 1, 1,       0,      30
   668, 1, 1,       0,      10
   710, 1, 1,       0,      29
   711, 1, 1,       0,      30
   754, 1, 1,       0,      78
   768, 1, 1,       0,      34
   995, 1, 1,       0,     -64
  1073, 1, 1,       0,      10
  1130, 1, 1,       0,      29
  1169, 1, 1,       0,      30
  1170, 1, 1,       0,      80
  1206, 1, 1,       0,      40
  1246, 1, 1,       0,       9
  1265, 1, 1,       0,      80
  1454, 1, 1,       0,       6
  1474, 1, 1,       0,      30
  1478, 1, 1,       0,      20
  1528, 1, 1,       0,      30
  1530, 1, 1,       0,      80
  1596, 1, 1,       0,      30
  1683, 1, 1,       0,      30
  1711, 1, 1,       0,      10
  1747, 1, 1,       0,      30
  1750, 1, 1,       0,    15.4
  1771, 1, 1,       0,      20
  1773, 1, 1,       0,      80
  1775, 1, 1,       0,    30.4
  1776, 1, 1,       0,      80
  1789, 1, 1,       0,      10
  1805, 1, 1,       0,      30
  2035, 1, 1,       0,    15.4
  2298, 1, 1,       0,      15
  2461, 1, 1,       0,    30.4
  2475, 1, 1,       0,      63
  2482, 1, 1,       0,      30
  2541, 1, 1,       0,      60
  2587, 1, 1,       0,      30
  2714, 1, 1,       0,     640
  2761, 1, 1,       0,     -64
  2790, 1, 1,       0,      80
  2802, 1, 1,       0,      89
  2891, 1, 1,       0,      10
  2964, 1, 1,       0,      30
  2994, 1, 1,       0,      30
  3056, 1, 1,       0,      29
  3106, 1, 1,       0,      16
  3120, 1, 1,       0,      19
  3172, 1, 1,       0,      78
  3200, 1, 1,       0,      10
  3290, 1, 1,       0,      15
  3314, 1, 1,       0,      60
  3374, 1, 1,       0,      80
  3420, 1, 1,       0,      80
  3450, 1, 1,       0,    30.7
  3477, 1, 1,       0,      30
  3532, 1, 1,       0,      80
  3548, 1, 1,       0,      30
  3552, 1, 1,       0,      15
  3612, 1, 1,       0,      30
  3616, 1, 1,       0,      20
  3658, 1, 1,       0,      40
  3670, 1, 1,       0,      30
  3728, 1, 1,       0,      30
  3865, 1, 1,       0,      30
  3872, 1, 1,       0,      30
  3873, 1, 1,       0,      80
  3996, 1, 1,       0,      34
  4000, 1, 1,       0,      30
  4133, 1, 1,       0,      48
  4134, 1, 1,       0,      80
  4200, 1, 1,       0,      80
  4234, 1, 1,       0,      34
  4242, 1, 1,       0,      20
  4247, 1, 1,       0,      20
  4302, 1, 1,       0,      30
  4408, 1, 1,       0,     -15
  4452, 1, 1,       0,      20
  4467, 1, 1,       0,    15.4
  4542, 1, 1,       0,     160
  4602, 1, 1,       0,      90
  4641, 1, 1,       0,    60.8
  4668, 1, 1,       0,      61
  4674, 1, 1,       0,      32
  4735, 1, 1,       0,      30
  4785, 1, 1,       0,      27
  4822, 1, 1,       0,      29
  4916, 1, 1,       0,      50
  5045, 1, 1,       0,      34
  6077, 1, 1,       0,     100
  6104, 1, 1,       0,    -150
0 / END OF FIXED SHUNT DATA, BEGIN GENERATOR DATA
     4,  1,         0,         0,         0,         0,     1.04, 0,     100, 0, 1, 0, 0, 1, 0, 100,        12,         0, 1, 1, 0, 1, 0, 1, 0, 1, 0, 1
     4,  2,         0,         0,         0,         0,     1.04, 0,     100, 0, 1, 0, 0, 1, 0, 100,        10,         0, 1, 1, 0, 1, 0, 1, 0, 1, 0, 1
     5,  1,         0,         0,         0,         0,    1.024, 0,     100, 0, 1, 0, 0, 1, 0, 100,       9.1,         0, 1, 1, 0, 1, 0, 1, 0, 1, 0, 1
    11,  1,       0.1,         0,         0,         0,    1.035, 0,     100, 0, 1, 0, 0, 1, 1, 100,        28,         0, 1, 1, 0, 1, 0, 1, 0, 1, 0, 1
    11,  2,         0,         0,         0,         0,    1.035, 0,     100, 0, 1, 0, 0, 1, 0, 100,        18,         0, 1, 1, 0, 1, 0, 1, 0, 1, 0, 1
    17,  1,         0,         0,         0,         0,    1.051, 0,     100, 0, 1, 0, 0, 1, 0, 100,       8.2,         0, 1, 1, 0, 1, 0, 1, 0, 1, 0, 1
    19,  1,         0,         0,         0,         0,    1.032, 0,     100, 0, 1, 0, 0, 1, 0, 100,       1.2,         0, 1, 1, 0, 1, 0, 1, 0, 1, 0, 1
    22,  1,         0,         0,         0,         0,    1.024, 0,     100, 0, 1, 0, 0, 1, 0, 100,        10,         0, 1, 1, 0, 1, 0, 1, 0, 1, 0, 1
    24,  1,         0,         0,         0,         0,    1.042, 0,     100, 0, 1, 0, 0, 1, 0, 100,      16.1,         0, 1, 1, 0, 1, 0, 1, 0, 1, 0, 1
    24,  2,         0,         0,         0,         0,    1.042, 0,     100, 0, 1, 0, 0, 1, 0, 100,      35.5,         0, 1, 1, 0, 1, 0, 1, 0, 1, 0, 1
    25,  1,      1.29,         0,         0,         0,    1.078, 0,     100, 0, 1, 0, 0, 1, 1, 100,        36,         0, 1, 1, 0, 1, 0, 1, 0, 1, 0, 1
    25,  2,         0,         0,         0,         0,    1.078, 0,     100, 0, 1, 0, 0, 1, 0, 100,      27.2,         0, 1, 1, 0, 1, 0, 1, 0, 1, 0, 1
    40,  1,         0,         0,         0,         0,    1.061, 0,     100, 0, 1, 0, 0, 1, 0, 100,         8,         0, 1, 1, 0, 1, 0, 1, 0, 1, 0, 1
    47,  1,      8.51,       -10,       9.5,       -10,    1.027, 0,     100, 0, 1, 0, 0, 1, 1, 100,        16,         0, 1, 1, 0, 1, 0, 1, 0, 1, 0, 1
    47,  2,      8.51,       -10,       9.5,       -10,    1.027, 0,     100, 0, 1, 0, 0, 1, 1, 100,        16,         0, 1, 1, 0, 1, 0, 1, 0, 1, 0, 1
    48,  1,         0,         0,         0,         0,    1.037, 0,     100, 0, 1, 0, 0, 1, 0, 100,        23,         0, 1, 1, 0, 1, 0, 1, 0, 1, 0, 1
    48,  2,         0,         0,         0,         0,    1.037, 0,     100, 0, 1, 0, 0, 1, 0, 100,        24,         0, 1, 1, 0, 1, 0, 1, 0, 1, 0, 1
    57,  1,      4.17,         1,         1,       0.9,    1.061, 0,     100, 0, 1, 0, 0, 1, 1, 100,        13,         0, 1, 1, 0, 1, 0, 1, 0, 1, 0, 1
    64,  1,         0,         0,         0,         0,    1.067, 0,     100, 0, 1, 0, 0, 1, 0, 100,        24,         0, 1, 1, 0, 1, 0, 1, 0, 1, 0, 1
    64,  2,         0,         0,         0,         0,    1.067, 0,     100, 0, 1, 0, 0, 1, 0, 100,      27.6,         0, 1, 1, 0, 1, 0, 1, 0, 1, 0, 1
    69,  1,         0,         0,         0,         0,    1.049, 0,     100, 0, 1, 0, 0, 1, 0, 100,     30.04,         0, 1, 1, 0, 1, 0, 1, 0, 1, 0, 1
    70,  1,         0,         0,         0,         0,    1.022, 0,     100, 0, 1, 0, 0, 1, 0, 100,        23,         0, 1, 1, 0, 1, 0, 1, 0, 1, 0, 1
    85,  1,      0.15,         0,         0,         0,     1.05, 0,     100, 0, 1, 0, 0, 1, 1, 100,      6.68,         0, 1, 1, 0, 1, 0, 1, 0, 1, 0, 1
    86,  1,         0,         0,         0,         0,    1.035, 0,     100, 0, 1, 0, 0, 1, 0, 100,       9.2,         0, 1, 1, 0, 1, 0, 1, 0, 1, 0, 1
   102,  1,     17.12,     -8.03,        21,        -9,     1.03, 0,     100, 0, 1, 0, 0, 1, 1, 100,        46,         0, 1, 1, 0, 1, 0, 1, 0, 1, 0, 1
   122,  1,      5.92,      0.48,         5,        -2,    1.038, 0,     100, 0, 1, 0, 0, 1, 1, 100,        12,         0, 1, 1, 0, 1, 0, 1, 0, 1, 0, 1
   124,  1,         0,         0,         0,         0,    1.047, 0,     100, 0, 1, 0, 0, 1, 0, 100,         9,         0, 1, 1, 0, 1, 0, 1, 0, 1, 0, 1
   125,  1,      1.11,         0,         0,         0,    1.034, 0,     100, 0, 1, 0, 0, 1, 1, 100,        26,         0, 1, 1, 0, 1, 0, 1, 0, 1, 0, 1
   125,  2,         0,         0,         0,         0,    1.034, 0,     100, 0, 1, 0, 0, 1, 0, 100,        12,         0, 1, 1, 0, 1, 0, 1, 0, 1, 0, 1
   132,  1,     12.21,      1.67,         3,        -3,    1.068, 0,     100, 0, 1, 0, 0, 1, 1, 100,        17,         0, 1, 1, 0, 1, 0, 1, 0, 1, 0, 1
   132,  2,         0,         1,         1,        -1,    1.068, 0,     100, 0, 1, 0, 0, 1, 0, 100,         4,         0, 1, 1, 0, 1, 0, 1, 0, 1, 0, 1
   132,  3,         0,      1.67,         3,        -3,    1.068, 0,     100, 0, 1, 0, 0, 1, 0, 100,        14,         0, 1, 1, 0, 1, 0, 1, 0, 1, 0, 1
   132,  4,         0,      1.67,         3,        -3,    1.068, 0,     100, 0, 1, 0, 0, 1, 0, 100,        14,         0, 1, 1, 0, 1, 0, 1, 0, 1, 0, 1
   137,  1,         0,      0.25,       0.8,      -0.8,    1.032, 0,     100, 0, 1, 0, 0, 1, 0, 100,        18,         0, 1, 1, 0, 1, 0, 1, 0, 1, 0, 1
   137,  2,     10.14,     -0.55,       0.8,      -0.8,    1.032, 0,     100, 0, 1, 0, 0, 1, 1, 100,        18,         0, 1, 1, 0, 1, 0, 1, 0, 1, 0, 1
   155,  1,         0,      1.76,      1.76,     -1.76,     1.05, 0,     100, 0, 1, 0, 0, 1, 0, 100,       5.3,         0, 1, 1, 0, 1, 0, 1, 0, 1, 0, 1
   158,  1,       8.2,      2.26,        10,       -13,    0.963, 0,     100, 0, 1, 0, 0, 1, 1, 100,      17.9,         0, 1, 1, 0, 1, 0, 1, 0, 1, 0, 1
   158,  2,       8.2,      2.26,        10,       -13,    0.963, 0,     100, 0, 1, 0, 0, 1, 1, 100,      17.9,         0, 1, 1, 0, 1, 0, 1, 0, 1, 0, 1
   176,  1,         0,      2.01,        10,        -4,    1.099, 0,     100, 0, 1, 0, 0, 1, 0, 100,        30,         0, 1, 1, 0, 1, 0, 1, 0, 1, 0, 1
   187,  1,         0,      2.28,         8,        -8,    1.079, 0,     100, 0, 1, 0, 0, 1, 0, 100,        11,         0, 1, 1, 0, 1, 0, 1, 0, 1, 0, 1
   187,  2,         0,         2,         2,        -2,    1.079, 0,     100, 0, 1, 0, 0, 1, 0, 100,        11,         0, 1, 1, 0, 1, 0, 1, 0, 1, 0, 1
   190,  1,         0,     -0.23,        14,       -14,    0.948, 0,     100, 0, 1, 0, 0, 1, 0, 100,        30,         0, 1, 1, 0, 1, 0, 1, 0, 1, 0, 1
   192,  1,       2.1,         0,         0,         0,    1.062, 0,     100, 0, 1, 0, 0, 1, 1, 100,      23.5,         0, 1, 1, 0, 1, 0, 1, 0, 1, 0, 1
   194,  1,      2.48,         1,         1,       0.9,    1.059, 0,     100, 0, 1, 0, 0, 1, 1, 100,        15,         0, 1, 1, 0, 1, 0, 1, 0, 1, 0, 1
   194,  2,      2.48,         1,         1,       0.9,    1.059, 0,     100, 0, 1, 0, 0, 1, 1, 100,        15,         0, 1, 1, 0, 1, 0, 1, 0, 1, 0, 1
   217,  1,         0,         0,         0,         0,    1.029, 0,     100, 0, 1, 0, 0, 1, 0, 100,     11.94,         0, 1, 1, 0, 1, 0, 1, 0, 1, 0, 1
   224,  1,         0,      1.99,         2,         0,    1.099, 0,     100, 0, 1, 0, 0, 1, 0, 100,         6,         0, 1, 1, 0, 1, 0, 1, 0, 1, 0, 1
   227,  1,         0,         0,         0,         0,    1.027, 0,     100, 0, 1, 0, 0, 1, 0, 100,       7.5,         0, 1, 1, 0, 1, 0, 1, 0, 1, 0, 1
   236,  1,         0,         0,         0,         0,    1.051, 0,     100, 0, 1, 0, 0, 1, 0, 100,      33.5,         0, 1, 1, 0, 1, 0, 1, 0, 1, 0, 1
   236,  2,         0,         0,         0,         0,    1.051, 0,     100, 0, 1, 0, 0, 1, 0, 100,      24.3,         0, 1, 1, 0, 1, 0, 1, 0, 1, 0, 1
   238,  1,         0,         0,         0,         0,     1.04, 0,     100, 0, 1, 0, 0, 1, 0, 100,         8,         0, 1, 1, 0, 1, 0, 1, 0, 1, 0, 1
   238,  2,         0,         0,         0,         0,     1.04, 0,     100, 0, 1, 0, 0, 1, 0, 100,        36,         0, 1, 1, 0, 1, 0, 1, 0, 1, 0, 1
   246,  1,         0,         0,         2,         0,    1.015, 0,     100, 0, 1, 0, 0, 1, 0, 100,         1,         0, 1, 1, 0, 1, 0, 1, 0, 1, 0, 1
   246,  2,         0,     -0.18,        10,       -10,    1.015, 0,     100, 0, 1, 0, 0, 1, 0, 100,        31,         0, 1, 1, 0, 1, 0, 1, 0, 1, 0, 1
   246,  3,         0,     -0.18,        10,       -10,    1.015, 0,     100, 0, 1, 0, 0, 1, 0, 100,        31,         0, 1, 1, 0, 1, 0, 1, 0, 1, 0, 1
   246,  4,         0,     -0.18,        10,       -10,    1.015, 0,     100, 0, 1, 0, 0, 1, 0, 100,        31,         0, 1, 1, 0, 1, 0, 1, 0, 1, 0, 1
   256,  1,      8.11,     -5.68,        10,       -10,    1.047, 0,     100, 0, 1, 0, 0, 1, 1, 100,        26,         0, 1, 1, 0, 1, 0, 1, 0, 1, 0, 1
   256,  2,     13.11,     -5.68,        10,       -10,    1.047, 0,     100, 0, 1, 0, 0, 1, 1, 100,        26,         0, 1, 1, 0, 1, 0, 1, 0, 1, 0, 1
   258,  1,     25.27,       0.9,         1,       0.9,    1.079, 0,     100, 0, 1, 0, 0, 1, 1, 100,        30,         0, 1, 1, 0, 1, 0, 1, 0, 1, 0, 1
   261,  1,         0,         2,         4,        -4,    1.047, 0,     100, 0, 1, 0, 0, 1, 0, 100,         8,         0, 1, 1, 0, 1, 0, 1, 0, 1, 0, 1
   269,  1,         0,         0,         0,         0,    1.009, 0,     100, 0, 1, 0, 0, 1, 0, 100,      12.6,         0, 1, 1, 0, 1, 0, 1, 0, 1, 0, 1
   282,  1,         0,     -0.19,       6.1,      -6.2,    1.015, 0,     100, 0, 1, 0, 0, 1, 0, 100,      11.6,         0, 1, 1, 0, 1, 0, 1, 0, 1, 0, 1
   295,  1,         0,         0,         0,         0,    1.055, 0,     100, 0, 1, 0, 0, 1, 0, 100,      25.3,         0, 1, 1, 0, 1, 0, 1, 0, 1, 0, 1
   296,  1,      5.04,         0,         0,         0,     1.02, 0,     100, 0, 1, 0, 0, 1, 1, 100,        12,         0, 1, 1, 0, 1, 0, 1, 0, 1, 0, 1
   305,  1,      0.15,     -2.76,         9,        -9,    1.053, 0,     100, 0, 1, 0, 0, 1, 1, 100,        15,         0, 1, 1, 0, 1, 0, 1, 0, 1, 0, 1
   312,  1,      2.19,         0,         0,         0,    1.022, 0,     100, 0, 1, 0, 0, 1, 1, 100,      25.8,         0, 1, 1, 0, 1, 0, 1, 0, 1, 0, 1
   312,  2,      8.19,         0,         0,         0,    1.022, 0,     100, 0, 1, 0, 0, 1, 1, 100,      49.6,         0, 1, 1, 0, 1, 0, 1, 0, 1, 0, 1
   319,  1,         0,       0.1,       0.1,      -0.1,    1.037, 0,     100, 0, 1, 0, 0, 1, 0, 100,      10.8,         0, 1, 1, 0, 1, 0, 1, 0, 1, 0, 1
   325,  2,         0,     -0.04,         4,        -4,    1.037, 0,     100, 0, 1, 0, 0, 1, 0, 100,        11,         0, 1, 1, 0, 1, 0, 1, 0, 1, 0, 1
   332,  1,         0,      0.68,        13,        -9,    1.034, 0,     100, 0, 1, 0, 0, 1, 0, 100,        25,         0, 1, 1, 0, 1, 0, 1, 0, 1, 0, 1
   333,  1,         0,      4.58,        13,        -9,    1.048, 0,     100, 0, 1, 0, 0, 1, 0, 100,        25,         0, 1, 1, 0, 1, 0, 1, 0, 1, 0, 1
   336,  1,      7.91,        -0,         5,        -6,    1.026, 0,     100, 0, 1, 0, 0, 1, 1, 100,        13,         0, 1, 1, 0, 1, 0, 1, 0, 1, 0, 1
   338,  1,         0,      1.58,        10,       -10,    1.078, 0,     100, 0, 1, 0, 0, 1, 0, 100,        21,         0, 1, 1, 0, 1, 0, 1, 0, 1, 0, 1
   338,  2,         0,       0.1,       0.1,      -0.1,    1.078, 0,     100, 0, 1, 0, 0, 1, 0, 100,         2,         0, 1, 1, 0, 1, 0, 1, 0, 1, 0, 1
   345,  1,         0,         0,         0,         0,    1.035, 0,     100, 0, 1, 0, 0, 1, 0, 100,       2.3,         0, 1, 1, 0, 1, 0, 1, 0, 1, 0, 1
   345,  2,      0.05,         0,         0,         0,    1.035, 0,     100, 0, 1, 0, 0, 1, 1, 100,      19.5,         0, 1, 1, 0, 1, 0, 1, 0, 1, 0, 1
   348,  1,         0,         0,         0,         0,    1.062, 0,     100, 0, 1, 0, 0, 1, 0, 100,        22,         0, 1, 1, 0, 1, 0, 1, 0, 1, 0, 1
   357,  2,         0,         0,         0,         0,    1.018, 0,     100, 0, 1, 0, 0, 1, 0, 100,        12,         0, 1, 1, 0, 1, 0, 1, 0, 1, 0, 1
   357,  1,         0,         0,         0,         0,    1.018, 0,     100, 0, 1, 0, 0, 1, 0, 100,        12,         0, 1, 1, 0, 1, 0, 1, 0, 1, 0, 1
   364,  1,    125.15,     -1.03,        59,       -26,    1.049, 0,     100, 0, 1, 0, 0, 1, 1, 100,       130,         0, 1, 1, 0, 1, 0, 1, 0, 1, 0, 1
   391,  2,         0,         0,         0,         0,    1.043, 0,     100, 0, 1, 0, 0, 1, 0, 100,       2.7,         0, 1, 1, 0, 1, 0, 1, 0, 1, 0, 1
   409,  1,         0,      0.73,         5,        -5,    1.033, 0,     100, 0, 1, 0, 0, 1, 0, 100,        18,         0, 1, 1, 0, 1, 0, 1, 0, 1, 0, 1
   411,  1,         0,         0,         0,         0,    1.038, 0,     100, 0, 1, 0, 0, 1, 0, 100,        10,         0, 1, 1, 0, 1, 0, 1, 0, 1, 0, 1
   411,  2,         0,         0,         0,         0,    1.038, 0,     100, 0, 1, 0, 0, 1, 0, 100,      11.5,         0, 1, 1, 0, 1, 0, 1, 0, 1, 0, 1
   431,  1,      2.06,         0,         0,         0,    1.062, 0,     100, 0, 1, 0, 0, 1, 1, 100,        12,         0, 1, 1, 0, 1, 0, 1, 0, 1, 0, 1
   440,  2,         0,      1.45,     10.96,    -11.99,    1.035, 0,     100, 0, 1, 0, 0, 1, 0, 100,     34.25,         0, 1, 1, 0, 1, 0, 1, 0, 1, 0, 1
   447,  1,     17.34,      0.84,         8,        -9,    0.999, 0,     100, 0, 1, 0, 0, 1, 1, 100,        25,         0, 1, 1, 0, 1, 0, 1, 0, 1, 0, 1
   462,  1,         0,         0,         0,         0,    1.038, 0,     100, 0, 1, 0, 0, 1, 0, 100,       2.4,         0, 1, 1, 0, 1, 0, 1, 0, 1, 0, 1
   462,  2,         0,         0,         0,         0,    1.038, 0,     100, 0, 1, 0, 0, 1, 0, 100,        16,         0, 1, 1, 0, 1, 0, 1, 0, 1, 0, 1
   464,  1,      4.27,      0.25,         6,        -3,    1.168, 0,     100, 0, 1, 0, 0, 1, 1, 100,        27,         1, 1, 1, 0, 1, 0, 1, 0, 1, 0, 1
   464,  2,      4.27,      0.25,         6,        -3,    1.168, 0,     100, 0, 1, 0, 0, 1, 1, 100,        27,         1, 1, 1, 0, 1, 0, 1, 0, 1, 0, 1
   466,  1,         0,         0,        19,       -10,    1.037, 0,     100, 0, 1, 0, 0, 1, 0, 100,        48,         1, 1, 1, 0, 1, 0, 1, 0, 1, 0, 1
   470,  2,         0,     -0.57,         6,        -6,    1.049, 0,     100, 0, 1, 0, 0, 1, 0, 100,        10,         0, 1, 1, 0, 1, 0, 1, 0, 1, 0, 1
   470,  1,         0,     -3.08,       5.4,      -5.4,    1.049, 0,     100, 0, 1, 0, 0, 1, 0, 100,         9,         0, 1, 1, 0, 1, 0, 1, 0, 1, 0, 1
   479,  1,         0,     -0.09,        17,       -16,    1.019, 0,     100, 0, 1, 0, 0, 1, 0, 100,        27,         0, 1, 1, 0, 1, 0, 1, 0, 1, 0, 1
   479,  2,         0,     -0.09,        17,       -16,    1.019, 0,     100, 0, 1, 0, 0, 1, 0, 100,        27,         0, 1, 1, 0, 1, 0, 1, 0, 1, 0, 1
   479,  3,         0,     -0.09,        17,       -16,    1.019, 0,     100, 0, 1, 0, 0, 1, 0, 100,        27,         0, 1, 1, 0, 1, 0, 1, 0, 1, 0, 1
   491,  2,         0,     -0.75,         8,       -17,    1.055, 0,     100, 0, 1, 0, 0, 1, 0, 100,      23.4,         0, 1, 1, 0, 1, 0, 1, 0, 1, 0, 1
   508,  3,         0,      1.72,         2,        -2,    1.029, 0,     100, 0, 1, 0, 0, 1, 0, 100,         4,         0, 1, 1, 0, 1, 0, 1, 0, 1, 0, 1
   519,  1,         0,         0,         0,         0,    1.007, 0,     100, 0, 1, 0, 0, 1, 0, 100,        10,         0, 1, 1, 0, 1, 0, 1, 0, 1, 0, 1
   520,  1,         0,         0,         0,         0,    1.042, 0,     100, 0, 1, 0, 0, 1, 0, 100,        12,         0, 1, 1, 0, 1, 0, 1, 0, 1, 0, 1
   530,  1,      1.87,      0.06,       4.8,      -4.8,    1.044, 0,     100, 0, 1, 0, 0, 1, 1, 100,         8,         0, 1, 1, 0, 1, 0, 1, 0, 1, 0, 1
   530,  2,      1.87,      0.06,       4.8,      -4.8,    1.044, 0,     100, 0, 1, 0, 0, 1, 1, 100,         8,         0, 1, 1, 0, 1, 0, 1, 0, 1, 0, 1
   530,  3,      1.87,      0.06,       4.8,      -4.8,    1.044, 0,     100, 0, 1, 0, 0, 1, 1, 100,         8,         0, 1, 1, 0, 1, 0, 1, 0, 1, 0, 1
   537,  2,         0,         0,         0,         0,    1.035, 0,     100, 0, 1, 0, 0, 1, 0, 100,        12,         0, 1, 1, 0, 1, 0, 1, 0, 1, 0, 1
   537,  3,      1.95,         0,         0,         0,    1.035, 0,     100, 0, 1, 0, 0, 1, 1, 100,        24,         0, 1, 1, 0, 1, 0, 1, 0, 1, 0, 1
   546,  1,         0,         2,         2,       1.9,    1.051, 0,     100, 0, 1, 0, 0, 1, 1, 100,         9,         0, 1, 1, 0, 1, 0, 1, 0, 1, 0, 1
   548,  2,         0,         2,         2,         0,    1.051, 0,     100, 0, 1, 0, 0, 1, 0, 100,        12,         0, 1, 1, 0, 1, 0, 1, 0, 1, 0, 1
   570,  1,         0,         0,         0,         0,    1.001, 0,     100, 0, 1, 0, 0, 1, 0, 100,        12,         0, 1, 1, 0, 1, 0, 1, 0, 1, 0, 1
   570,  2,         0,         0,         0,         0,    1.001, 0,     100, 0, 1, 0, 0, 1, 0, 100,        30,         0, 1, 1, 0, 1, 0, 1, 0, 1, 0, 1
   570,  3,         0,         0,         0,         0,    1.001, 0,     100, 0, 1, 0, 0, 1, 0, 100,      11.5,         0, 1, 1, 0, 1, 0, 1, 0, 1, 0, 1
   583,  2,      3.18,      3.92,         7,        -4,    1.021, 0,     100, 0, 1, 0, 0, 1, 1, 100,        16,         0, 1, 1, 0, 1, 0, 1, 0, 1, 0, 1
   585,  3,         0,         0,         0,         0,    0.995, 0,     100, 0, 1, 0, 0, 1, 0, 100,         9,         0, 1, 1, 0, 1, 0, 1, 0, 1, 0, 1
   586,  1,         0,      4.61,       5.7,      -5.7,    1.022, 0,     100, 0, 1, 0, 0, 1, 0, 100,       9.5,         0, 1, 1, 0, 1, 0, 1, 0, 1, 0, 1
   589,  1,         0,       0.1,       0.1,      -0.1,     1.03, 0,     100, 0, 1, 0, 0, 1, 0, 100,         1,         0, 1, 1, 0, 1, 0, 1, 0, 1, 0, 1
   593,  1,         0,      1.34,        10,       -10,    1.013, 0,     100, 0, 1, 0, 0, 1, 0, 100,        21,         0, 1, 1, 0, 1, 0, 1, 0, 1, 0, 1
   600,  1,         0,      0.37,         1,        -1,     1.03, 0,     100, 0, 1, 0, 0, 1, 0, 100,       6.1,         0, 1, 1, 0, 1, 0, 1, 0, 1, 0, 1
   610,  1,     39.12,     -5.64,        45,       -45,    1.028, 0,     100, 0, 1, 0, 0, 1, 1, 100,        45,         0, 1, 1, 0, 1, 0, 1, 0, 1, 0, 1
   610,  2,         0,     -0.16,        45,       -45,    1.028, 0,     100, 0, 1, 0, 0, 1, 0, 100,        45,         0, 1, 1, 0, 1, 0, 1, 0, 1, 0, 1
   612,  1,         0,         0,         0,         0,    1.024, 0,     100, 0, 1, 0, 0, 1, 0, 100,        12,         0, 1, 1, 0, 1, 0, 1, 0, 1, 0, 1
   612,  2,         0,         0,         0,         0,    1.024, 0,     100, 0, 1, 0, 0, 1, 0, 100,        12,         0, 1, 1, 0, 1, 0, 1, 0, 1, 0, 1
   612,  3,         0,         0,         0,         0,    1.024, 0,     100, 0, 1, 0, 0, 1, 0, 100,        12,         0, 1, 1, 0, 1, 0, 1, 0, 1, 0, 1
   613,  2,         0,         0,         0,         0,    1.022, 0,     100, 0, 1, 0, 0, 1, 0, 100,        35,         0, 1, 1, 0, 1, 0, 1, 0, 1, 0, 1
   613,  3,         0,         0,         0,         0,    1.022, 0,     100, 0, 1, 0, 0, 1, 0, 100,      11.5,         0, 1, 1, 0, 1, 0, 1, 0, 1, 0, 1
   624,  1,     -4.03,      -8.3,       8.3,      -8.3,    1.039, 0,     100, 0, 1, 0, 0, 1, 1, 100,       8.3,      -8.3, 1, 1, 0, 1, 0, 1, 0, 1, 0, 1
   633,  2,         0,      -4.7,         4,      -4.7,    1.039, 0,     100, 0, 1, 0, 0, 1, 0, 100,       7.3,         0, 1, 1, 0, 1, 0, 1, 0, 1, 0, 1
   636,  1,         0,       0.5,         7,         0,    1.003, 0,     100, 0, 1, 0, 0, 1, 0, 100,        15,         0, 1, 1, 0, 1, 0, 1, 0, 1, 0, 1
   636,  2,      0.97,       4.5,         7,         0,    1.003, 0,     100, 0, 1, 0, 0, 1, 1, 100,        15,         0, 1, 1, 0, 1, 0, 1, 0, 1, 0, 1
   641,  1,    160.75,     -1.52,        80,       -75,    1.104, 0,     100, 0, 1, 0, 0, 1, 1, 100,       239,         0, 1, 1, 0, 1, 0, 1, 0, 1, 0, 1
   652,  2,         0,      1.32,         7,         0,    1.062, 0,     100, 0, 1, 0, 0, 1, 0, 100,         7,         0, 1, 1, 0, 1, 0, 1, 0, 1, 0, 1
   670,  1,      0.14,         0,         0,         0,    1.033, 0,     100, 0, 1, 0, 0, 1, 1, 100,        12,         0, 1, 1, 0, 1, 0, 1, 0, 1, 0, 1
...